PSCAD_VALIDATION_RAW.raw
0,   100.00,  32, 0, 1, 60.00     / PSS(R)E 32 RAW created by rawd32  WED, MAR 23 2022  11:35
SIMPLIFIED WECC240 MODEL: PRELIMINARY DRAFT, RESEARCH ONLY
FOR PSERC PROJECT M21 - SEE PROJECT DOCUMENTS FOR DETAILS
  1001,'FOURCORN    ', 500.0000,1,   1,   3,   1,1.02588,  22.1691
  1002,'FOURCORN    ', 345.0000,1,   1,   3,   1,1.01400,  26.7881
  1003,'FOURCORN    ', 230.0000,2,   1,  10,   1,0.97343,  18.2070
  1004,'SAN JUAN    ', 345.0000,2,   1,  10,   1,1.04133,  39.9459
  1032,'FCNGN4CC    ',  20.0000,2,   1,  10,   1,1.01695,  27.3629
  1034,'SJUAN G4    ',  20.0000,2,   1,  10,   1,1.04386,  41.5256
  1101,'CORONADO    ', 500.0000,2,   1,   3,   1,1.01000,  -1.8515
  1102,'CHOLLA      ', 345.0000,1,   1,   3,   1,0.97937,   9.7340
  1131,'CORONADO    ',  20.0000,2,   1,   3,   1,1.01081,  -1.1235
  1201,'MOENKOPI    ', 500.0000,1,   1,   3,   1,1.08407,   2.2631
  1202,'NAVAJO      ', 500.0000,1,   1,   3,   1,1.08000,   5.1678
  1232,'NAVAJO 2    ',  20.0000,2,   1,   3,   1,1.08082,   5.9814
  1301,'MEAD        ', 500.0000,2,   1,   3,   1,1.04500,  -2.5990
  1302,'H ALLEN     ', 500.0000,1,   1,   9,   1,1.02691,  -2.0148
  1303,'H ALLEN     ', 345.0000,2,   1,   9,   1,1.00500,  -4.4821
  1331,'HOOVER      ',  20.0000,2,   1,   3,   1,1.04514,  -1.5277
  1333,'H ALLEN     ',  20.0000,2,   1,   9,   1,1.00879,  -3.0535
  1401,'PALOVRDE    ', 500.0000,2,   1,   3,   1,1.03500,  -6.9948
  1402,'WESTWING    ', 500.0000,2,   1,   3,   1,1.05807, -12.3292
  1403,'PARKER      ', 230.0000,1,   1,   3,   1,1.03628,  -7.2440
  1431,'PALOVRD2    ',  20.0000,2,   1,   3,   1,1.04071,  -4.7138
  2000,'MEXICO      ', 230.0000,1,   2,   7,   1,1.00000, -14.0540
  2030,'MEXICO      ',  20.0000,2,   2,   7,   1,1.00150, -13.3397
  2100,'IMPERIAL    ', 230.0000,1,   2,   2,   1,1.03500,  -8.5144
  2130,'IMPERIAL    ',  20.0000,2,   2,   2,   1,1.03579,  -8.1680
  2201,'MIGUEL      ', 500.0000,1,   2,   2,   1,0.98590, -25.9069
  2202,'MIGUEL      ', 230.0000,2,   2,   2,   1,0.98409, -27.4221
  2203,'MISSION     ', 230.0000,2,   2,   2,   1,1.00500, -29.2277
  2233,'MISSION     ',  20.0000,2,   2,   2,   1,1.00749, -29.0127
  2301,'IMPRLVLY    ', 500.0000,1,   2,   2,   1,1.03358, -11.1612
  2302,'IMPRLVLY    ', 230.0000,1,   2,   2,   1,1.03500, -10.1086
  2332,'IMPRLVLY    ',  20.0000,2,   2,   2,   1,1.03560,  -9.8739
  2400,'DEVERS      ', 500.0000,2,   2,   2,   1,1.02440, -16.0230
  2401,'LUGO        ', 500.0000,2,   2,   2,   1,1.04969, -10.4936
  2402,'MIRALOMA    ', 500.0000,2,   2,   2,   1,1.02985, -15.8243
  2403,'VALLEY      ', 500.0000,2,   2,   2,   1,1.02280, -19.7325
  2404,'VINCENT     ', 500.0000,1,   2,   2,   1,1.03506,  -6.0222
  2405,'SYLMAR S    ', 230.0000,2,   2,   2,   1,1.01245,  -9.5185
  2406,'EAGLROCK    ', 230.0000,2,   2,   2,   1,1.00824, -14.7807
  2407,'LITEHIPE    ', 230.0000,2,   2,   2,   1,0.97137, -22.6726
  2408,'MESA CAL    ', 230.0000,2,   2,   2,   1,1.00900, -10.1894
  2409,'MIRALOMA    ', 230.0000,2,   2,   2,   1,1.02000, -17.4757
  2410,'PARDEE      ', 230.0000,2,   2,   2,   1,1.00702, -13.0951
  2411,'VINCENT     ', 230.0000,2,   2,   2,   1,1.02022,  -8.3453
  2431,'LUGO        ',  20.0000,2,   2,   2,   1,1.05000, -10.4676
  2434,'VINCENT     ',  20.0000,2,   2,   2,   1,1.02000,  -8.3178
  2438,'MESA CAL    ',  20.0000,2,   2,   2,   1,1.00984,  -8.8687
  2439,'MIRALOMA    ',  20.0000,2,   2,   2,   1,1.01978, -17.4206
  2501,'SERRANO     ', 500.0000,1,   2,   2,   1,1.02489, -18.4031
  2502,'SERRANO     ', 230.0000,2,   2,   2,   1,1.02225, -20.1703
  2503,'S.ONOFRE    ', 230.0000,2,   2,   2,   1,1.00900, -23.5707
  2533,'S.ONOFRE    ',  20.0000,2,   2,   2,   1,1.01004, -23.0369
  2600,'ADELANTO    ', 500.0000,1,   2,   2,   1,1.05417,  -5.6921
  2601,'RINALDI     ', 500.0000,1,   2,   2,   1,1.04707,  -6.9797
  2602,'STA E       ', 500.0000,1,   2,   2,   1,1.02169,  -7.1958
  2603,'VICTORVL    ', 500.0000,1,   2,   2,   1,1.05482,  -6.3271
  2604,'INTERMT     ', 345.0000,1,   2,   2,   1,1.06000,  36.9042
  2605,'STA B1      ', 287.0000,1,   2,   2,   1,1.02078,  -5.3731
  2606,'STA B2      ', 287.0000,1,   2,   2,   1,1.02078,  -5.3731
  2607,'VICTORVL    ', 287.0000,1,   2,   2,   1,1.04738,  -6.0545
  2608,'CASTAIC     ', 230.0000,1,   2,   2,   1,1.01990,  -9.0646
  2609,'GLENDAL     ', 230.0000,1,   2,   2,   1,0.99970,  -6.1635
  2610,'HAYNES      ', 230.0000,1,   2,   2,   1,1.00400,   7.8177
  2611,'OLIVE       ', 230.0000,1,   2,   2,   1,1.01772,  -8.2574
  2612,'RINALDI     ', 230.0000,1,   2,   2,   1,1.01500,  -8.4638
  2613,'RIVER       ', 230.0000,2,   2,   2,   1,0.99456,  -2.7658
  2614,'STA BLD     ', 230.0000,1,   2,   2,   1,1.00205,  -4.2754
  2615,'STA E       ', 230.0000,2,   2,   2,   1,1.00558,  -7.4941
  2616,'STA F       ', 230.0000,1,   2,   2,   1,0.99654,  -3.0840
  2617,'STA G       ', 230.0000,1,   2,   2,   1,0.99767,  -4.7615
  2618,'STA J       ', 230.0000,2,   2,   2,   1,1.01245,  -9.5849
  2619,'SYLMARLA    ', 230.0000,1,   2,   2,   1,1.01383,  -8.0918
  2620,'VALLEY      ', 230.0000,1,   2,   2,   1,1.01010,  -8.5174
  2621,'STA B       ', 138.0000,1,   2,   2,   1,1.01283,  -5.2622
  2630,'HAYNES3G    ',  20.0000,2,   2,   2,   1,1.00486,   8.4621
  2631,'OLIVE       ',  20.0000,2,   2,   2,   1,1.01800,  -8.1932
  2634,'INTERM1G    ',  20.0000,2,   2,   2,   1,1.06198,  37.2953
  2637,'OWENS G     ',  20.0000,2,   2,   2,   1,1.01528,  -8.4602
  2638,'CASTAI4G    ',  20.0000,2,   2,   2,   1,1.02018,  -9.0646
  2901,'ELDORADO    ', 500.0000,1,   2,   2,   1,1.09814,  -4.1658
  2902,'MOHAVE      ', 500.0000,1,   2,   2,   1,1.11007,  -6.1666
  3101,'EMBRCDRD    ', 230.0000,2,   2,   2,   1,0.98582,  -3.9359
  3102,'MARTIN      ', 230.0000,1,   2,   2,   1,0.99097,  -2.7286
  3103,'SANMATEO    ', 230.0000,2,   2,   2,   1,1.00000,  -0.8804
  3104,'MARTIN      ', 115.0000,2,   2,   2,   1,0.98730,  -8.3009
  3105,'POTRERO     ', 115.0000,1,   2,   2,   1,1.00000,  -8.7078
  3133,'SANMATEO    ',  20.0000,2,   2,   2,   1,1.00114,  -0.8801
  3135,'POTRERO     ',  20.0000,2,   2,   2,   1,1.00044,  -8.6448
  3201,'C.COSTA     ', 230.0000,2,   2,   2,   1,0.99582,   0.4328
  3202,'MORAGA      ', 230.0000,2,   2,   2,   1,0.99602,   0.6889
  3203,'NEWARK      ', 230.0000,2,   2,   2,   1,0.99787,   0.1854
  3204,'PITSBURG    ', 230.0000,2,   2,   2,   1,1.01000,   3.7859
  3205,'SOBRANTE    ', 230.0000,2,   2,   2,   1,0.99802,   1.5441
  3234,'PITSBURG    ',  20.0000,2,   2,   2,   1,1.01213,   4.9016
  3301,'METCALF     ', 500.0000,1,   2,   2,   1,0.99690,   4.3630
  3302,'JEFFERSN    ', 230.0000,2,   2,   2,   1,0.98522,  -2.3978
  3303,'METCALF     ', 230.0000,2,   2,   2,   1,1.00000,   1.1162
  3304,'MONTAVIS    ', 230.0000,2,   2,   2,   1,0.98957,  -1.0211
  3305,'RAVENSWD    ', 230.0000,2,   2,   2,   1,0.99810,  -1.3224
  3333,'METCALF     ',  20.0000,2,   2,   2,   1,1.00226,   1.3237
  3401,'GREGG       ', 230.0000,2,   2,   2,   1,0.97902,  -9.1567
  3402,'HELMS PP    ', 230.0000,1,   2,   2,   1,1.00000,  -9.2894
  3403,'MC CALL     ', 230.0000,2,   2,   2,   1,1.00000,   2.3395
  3404,'PANOCHE     ', 230.0000,2,   2,   2,   1,0.99111,  -3.0625
  3405,'WILSON      ', 230.0000,2,   2,   2,   1,0.96928, -11.0302
  3432,'HELMS PP    ',  20.0000,2,   2,   2,   1,1.00065,  -9.2894
  3433,'MC CALL     ',  20.0000,2,   2,   2,   1,1.00023,   2.6560
  3501,'FULTON      ', 230.0000,2,   2,   2,   1,1.00000,   5.5272
  3531,'FULTON      ',  20.0000,2,   2,   2,   1,1.00057,   5.8319
  3601,'HUMBOLDT    ', 115.0000,1,   2,   2,   1,1.01500,  17.4427
  3631,'HUMBOLDT    ',  20.0000,2,   2,   2,   1,1.01496,  17.4697
  3701,'SUMMIT      ', 115.0000,1,   1,   9,   1,1.00000,   3.0629
  3731,'SUMMIT      ',  20.0000,2,   1,   9,   1,1.00056,   3.1264
  3801,'DIABLO      ', 500.0000,1,   2,   2,   1,1.04900,   5.2616
  3802,'GATES       ', 500.0000,1,   2,   2,   1,1.03241,  -0.2602
  3803,'MIDWAY      ', 500.0000,1,   2,   2,   1,1.04159,  -2.2592
  3804,'GATES       ', 230.0000,1,   2,   2,   1,1.00222,  -2.4078
  3805,'MIDWAY      ', 230.0000,2,   2,   2,   1,1.03500,  -2.0333
  3806,'MORROBAY    ', 230.0000,1,   2,   2,   1,1.01900,   0.9105
  3831,'DIABLO1     ',  20.0000,2,   2,   2,   1,1.04912,   5.8104
  3835,'MIDWAY      ',  20.0000,2,   2,   2,   1,1.03567,  -1.9374
  3836,'MORROBAY    ',  20.0000,2,   2,   2,   1,1.01899,   1.0978
  3891,'GATES1      ', 500.0000,1,   2,   2,   1,1.05145,  -5.3761
  3892,'MIDWAY1     ', 500.0000,1,   2,   2,   1,1.03310,   2.0189
  3893,'MIDWAY2     ', 500.0000,1,   2,   2,   1,1.03522, -10.2758
  3894,'MIDWAY3     ', 500.0000,1,   2,   2,   1,1.03288,   2.0904
  3895,'MIDWAY4     ', 500.0000,1,   2,   2,   1,1.03549, -10.3032
  3896,'MIDWAY5     ', 500.0000,1,   2,   2,   1,1.03339,   2.3050
  3897,'MIDWAY6     ', 500.0000,1,   2,   2,   1,1.03696, -10.0938
  3901,'LOSBANOS    ', 500.0000,1,   2,   2,   1,1.01457,   2.8950
  3902,'MOSSLAND    ', 500.0000,1,   2,   2,   1,1.00000,   6.1591
  3903,'TESLA       ', 500.0000,1,   2,   2,   1,0.99541,   8.1101
  3904,'VACA-DIX    ', 500.0000,1,   2,   2,   1,0.98993,   8.8680
  3905,'TABLE MT    ', 500.0000,1,   2,   2,   1,1.00144,  18.1052
  3906,'ROUND MT    ', 500.0000,1,   2,   2,   1,1.05142,  25.6809
  3907,'BELLOTA     ', 230.0000,2,   2,   2,   1,0.97274,  -9.1700
  3908,'BRIGHTON    ', 230.0000,1,   2,   2,   1,0.96576,  -7.3867
  3909,'COLGATE     ', 230.0000,1,   2,   2,   1,0.95789,  -2.2399
  3910,'CORTINA     ', 230.0000,1,   2,   2,   1,0.94471,  -1.1643
  3911,'COTWDPGE    ', 230.0000,1,   2,   2,   1,1.02217,  17.6662
  3912,'GLENN       ', 230.0000,1,   2,   2,   1,0.99355,   6.4665
  3913,'GOLDHILL    ', 230.0000,2,   2,   2,   1,0.98301,  -3.7060
  3914,'IGNACIO     ', 230.0000,1,   2,   2,   1,0.98879,   1.6640
  3915,'LAKEVILE    ', 230.0000,1,   2,   2,   1,0.99030,   1.6996
  3916,'LOGAN CR    ', 230.0000,1,   2,   2,   1,0.99039,   5.3175
  3917,'LOSBANOS    ', 230.0000,1,   2,   2,   1,1.00112,  -0.7947
  3918,'MOSSLAND    ', 230.0000,2,   2,   2,   1,0.99368,   0.9456
  3919,'PALERMO     ', 230.0000,1,   2,   2,   1,0.95733,   0.6437
  3920,'RIO OSO     ', 230.0000,1,   2,   2,   1,0.97301,  -2.0923
  3921,'ROUND MT    ', 230.0000,1,   2,   2,   1,1.07000,  28.5958
  3922,'TABLE MT    ', 230.0000,1,   2,   2,   1,0.97257,   6.7517
  3923,'TESLA       ', 230.0000,2,   2,   2,   1,1.01552,  -0.0074
  3924,'VACA-DIX    ', 230.0000,2,   2,   2,   1,0.99219,   2.2270
  3925,'COTWDPGE    ', 115.0000,1,   2,   2,   1,1.01975,  17.5408
  3926,'RIO OSO     ', 115.0000,1,   2,   2,   1,0.98224,  -0.5750
  3931,'ROUND MT    ',  20.0000,2,   2,   2,   1,1.07145,  28.9574
  3932,'MOSSLAND    ',  20.0000,2,   2,   2,   1,0.99997,   6.5472
  3933,'TESLA       ',  20.0000,3,   2,   2,   1,1.02000,   0.0000
  4001,'MALIN       ', 500.0000,1,   3,  11,   1,1.08000,  30.0427
  4002,'SUMMER L    ', 500.0000,1,   3,  11,   1,1.10845,  39.4116
  4003,'BURNS       ', 500.0000,1,   3,  11,   1,1.13775,  52.8271
  4004,'GRIZZLY     ', 500.0000,1,   3,  11,   1,1.10848,  40.7019
  4005,'JOHN DAY    ', 500.0000,1,   3,  11,   1,1.12100,  50.3442
  4006,'BIG EDDY    ', 500.0000,1,   3,  11,   1,1.11817,  47.8933
  4007,'CELILOCA    ', 500.0000,1,   3,  11,   1,1.11864,  47.7696
  4008,'MALIN       ', 345.0000,1,   3,  11,   1,1.07465,  27.6714
  4009,'BIG EDDY    ', 230.0000,2,   3,  11,   1,1.13013,  46.3406
  4010,'CELILO      ', 230.0000,1,   3,  11,   1,1.12721,  45.9744
  4031,'MALIN       ',  20.0000,2,   3,  11,   1,1.08568,  30.4649
  4035,'JOHN DAY    ',  20.0000,2,   3,  11,   1,1.12796,  50.9197
  4039,'DALLES21    ',  20.0000,2,   3,  13,   1,1.13704,  46.8969
  4090,'MALIN1      ', 500.0000,1,   3,  11,   1,1.10417,  38.0644
  4091,'GRIZZLY1    ', 500.0000,1,   3,  11,   1,1.11258,  40.1534
  4092,'GRIZZLY2    ', 500.0000,1,   3,  11,   1,1.09741,  32.6906
  4093,'GRIZZLY3    ', 500.0000,1,   3,  11,   1,1.09774,  31.6424
  4094,'GRIZZLY4    ', 500.0000,1,   3,  11,   1,1.10456,  39.6395
  4095,'GRIZZLY5    ', 500.0000,1,   3,  11,   1,1.09654,  32.2320
  4096,'GRIZZLY6    ', 500.0000,1,   3,  11,   1,1.09700,  31.1237
  4097,'GRIZZLY7    ', 500.0000,1,   3,  11,   1,1.10389,  39.5814
  4101,'COULEE      ', 500.0000,1,   3,  13,   1,1.12800,  75.5471
  4102,'HANFORD     ', 500.0000,1,   3,  13,   1,1.09600,  65.0543
  4103,'BELL        ', 500.0000,1,   3,  13,   1,1.09351,  60.5348
  4104,'BELL        ', 230.0000,1,   3,  13,   1,1.07070,  49.6258
  4131,'COULEE      ',  20.0000,2,   3,  13,   1,1.13267,  77.6463
  4132,'HANFORD     ',  20.0000,2,   3,  13,   1,1.09978,  66.8545
  4201,'NORTH       ', 500.0000,2,   3,  13,   1,1.10755,  67.8282
  4202,'WCASCADE    ', 500.0000,1,   3,  13,   1,1.06000,  48.5654
  4203,'WILLAMET    ', 500.0000,1,   3,  13,   1,1.01354,  43.1968
  4204,'MERIDIAN    ', 500.0000,1,   3,  13,   1,1.06815,  31.1905
  4231,'NORTH G3    ',  20.0000,2,   3,  13,   1,1.12161,  68.8711
  4232,'WCASCADE    ',  20.0000,2,   3,  13,   1,1.05964,  48.8169
  5001,'CANADA      ', 500.0000,1,   3,   4,   1,1.05000,  68.1867
  5002,'CANALB      ', 500.0000,1,   3,   1,   1,1.05500,  69.0352
  5003,'CA230TO     ', 230.0000,1,   3,   1,   1,1.05273,  62.5760
  5004,'CA230       ', 230.0000,1,   3,   4,   1,1.06345,  55.9997
  5031,'CANAD G1    ',  20.0000,2,   3,   4,   1,1.04438,  70.1603
  5032,'CMAIN GM    ',  20.0000,2,   3,   1,   1,1.06127,  71.7205
  6101,'MIDPOINT    ', 500.0000,1,   3,   6,   1,1.14438,  68.0369
  6102,'MIDPOINT    ', 345.0000,1,   3,   6,   1,1.13000,  72.1155
  6103,'BORAH       ', 345.0000,1,   3,   6,   1,1.08757,  68.1805
...
 0 /End of Bus data, Begin Load data
  1002,'1 ',1,   1,   3,   226.842,  -600.000,     0.000,     0.000,     0.000,     0.000,   1,1
  1003,'1 ',1,   1,  10,  2153.320,   366.855,     0.000,     0.000,     0.000,     0.000,   1,1
  1004,'1 ',1,   1,  10,  1037.949,     5.521,     0.000,     0.000,     0.000,     0.000,   1,1
  1101,'1 ',1,   1,   3,  4527.366,  -137.044,     0.000,     0.000,     0.000,     0.000,   1,1
  1102,'1 ',1,   1,   3,   176.445,    23.004,     0.000,     0.000,     0.000,     0.000,   1,1
  1201,'1 ',1,   1,   3,   166.989,    -2.012,     0.000,     0.000,     0.000,     0.000,   1,1
  1202,'1 ',1,   1,   3,   875.610,   287.132,     0.000,     0.000,     0.000,     0.000,   1,1
  1301,'1 ',1,   1,   3,  2704.779,   352.826,     0.000,     0.000,     0.000,     0.000,   1,1
  1302,'1 ',1,   1,   9,    17.556,     2.304,     0.000,     0.000,     0.000,     0.000,   1,1
  1303,'1 ',1,   1,   9,  6235.137,   813.349,     0.000,     0.000,     0.000,     0.000,   1,1
  1401,'1 ',1,   1,   3,  6535.537,  1524.594,     0.000,     0.000,     0.000,     0.000,   1,1
  1402,'1 ',1,   1,   3,  5366.628,  -600.161,     0.000,     0.000,     0.000,     0.000,   1,1
  2000,'1 ',1,   2,   7,  2207.188,   287.916,     0.000,     0.000,     0.000,     0.000,   1,1
  2100,'1 ',1,   2,   2,   281.150,    54.830,     0.000,     0.000,     0.000,     0.000,   1,1
  2202,'1 ',1,   2,   2,  1545.957,   268.567,     0.000,     0.000,     0.000,     0.000,   1,1
  2203,'1 ',1,   2,   2,  1708.552,   278.273,     0.000,     0.000,     0.000,     0.000,   1,1
  2400,'1 ',1,   2,   2,   843.297,    76.664,     0.000,     0.000,     0.000,     0.000,   1,1
  2401,'1 ',1,   2,   2,   882.365,   105.214,     0.000,     0.000,     0.000,     0.000,   1,1
  2402,'1 ',1,   2,   2,  1080.022,    81.979,     0.000,     0.000,     0.000,     0.000,   1,1
  2403,'1 ',1,   2,   2,  1050.001,    38.542,     0.000,     0.000,     0.000,     0.000,   1,1
  2405,'1 ',1,   2,   2,   824.686,    22.901,     0.000,     0.000,     0.000,     0.000,   1,1
  2406,'1 ',1,   2,   2,   737.405,   -40.751,     0.000,     0.000,     0.000,     0.000,   1,1
  2407,'1 ',1,   2,   2,  1732.775,   -36.535,     0.000,     0.000,     0.000,     0.000,   1,1
  2408,'1 ',1,   2,   2,  1743.278,   -72.623,     0.000,     0.000,     0.000,     0.000,   1,1
  2409,'1 ',1,   2,   2,  1601.778,   -86.698,     0.000,     0.000,     0.000,     0.000,   1,1
  2410,'1 ',1,   2,   2,  1576.785,    58.184,     0.000,     0.000,     0.000,     0.000,   1,1
  2411,'1 ',1,   2,   2,  1087.628,    75.956,     0.000,     0.000,     0.000,     0.000,   1,1
  2502,'1 ',1,   2,   2,  2369.146,   -91.905,     0.000,     0.000,     0.000,     0.000,   1,1
  2503,'1 ',1,   2,   2,  1845.926,   201.991,     0.000,     0.000,     0.000,     0.000,   1,1
  2600,'1 ',1,   2,   2, -1863.906,     0.000,     0.000,     0.000,     0.000,     0.000,   1,1
  2602,'1 ',1,   2,   2,    99.278,    12.955,     0.000,     0.000,     0.000,     0.000,   1,1
  2604,'1 ',1,   2,   2,  2050.781,     0.000,     0.000,     0.000,     0.000,     0.000,   1,1
  2608,'1 ',1,   2,   2,    99.278,    12.955,     0.000,     0.000,     0.000,     0.000,   1,1
  2609,'1 ',1,   2,   2,   134.026,    26.805,     0.000,     0.000,     0.000,     0.000,   1,1
  2610,'1 ',1,   2,   2,    99.278,    12.955,     0.000,     0.000,     0.000,     0.000,   1,1
  2611,'1 ',1,   2,   2,    99.278,    12.955,     0.000,     0.000,     0.000,     0.000,   1,1
  2612,'1 ',1,   2,   2,   120.127,    24.819,     0.000,     0.000,     0.000,     0.000,   1,1
  2613,'1 ',1,   2,   2,   317.693,    64.531,     0.000,     0.000,     0.000,     0.000,   1,1
  2614,'1 ',1,   2,   2,   137.005,    27.798,     0.000,     0.000,     0.000,     0.000,   1,1
  2615,'1 ',1,   2,   2,   801.977,   131.149,     0.000,     0.000,     0.000,     0.000,   1,1
  2616,'1 ',1,   2,   2,   116.157,    23.827,     0.000,     0.000,     0.000,     0.000,   1,1
  2617,'1 ',1,   2,   2,   120.128,    24.819,     0.000,     0.000,     0.000,     0.000,   1,1
  2618,'1 ',1,   2,   2,   881.302,    -6.155,     0.000,     0.000,     0.000,     0.000,   1,1
  2619,'1 ',1,   2,   2, -2773.830,     0.000,     0.000,     0.000,     0.000,     0.000,   1,1
  2620,'1 ',1,   2,   2,   203.720,    17.473,     0.000,     0.000,     0.000,     0.000,   1,1
  2621,'1 ',1,   2,   2,   235.491,   -62.746,     0.000,     0.000,     0.000,     0.000,   1,1
  3101,'1 ',1,   2,   2,   341.307,    52.829,     0.000,     0.000,     0.000,     0.000,   1,1
  3102,'1 ',1,   2,   2,   159.465,    24.929,     0.000,     0.000,     0.000,     0.000,   1,1
  3103,'1 ',1,   2,   2,   419.611,    59.777,     0.000,     0.000,     0.000,     0.000,   1,1
  3104,'1 ',1,   2,   2,   309.973,    40.133,     0.000,     0.000,     0.000,     0.000,   1,1
  3105,'1 ',1,   2,   2,   239.302,    49.091,     0.000,     0.000,     0.000,     0.000,   1,1
  3201,'1 ',1,   2,   2,   462.477,    97.849,     0.000,     0.000,     0.000,     0.000,   1,1
  3202,'1 ',1,   2,   2,   586.180,    83.474,     0.000,     0.000,     0.000,     0.000,   1,1
  3203,'1 ',1,   2,   2,   657.104,   158.475,     0.000,     0.000,     0.000,     0.000,   1,1
  3204,'1 ',1,   2,   2,   668.788,    95.313,     0.000,     0.000,     0.000,     0.000,   1,1
  3205,'1 ',1,   2,   2,   546.059,    77.781,     0.000,     0.000,     0.000,     0.000,   1,1
  3302,'1 ',1,   2,   2,   345.326,    85.790,     0.000,     0.000,     0.000,     0.000,   1,1
  3303,'1 ',1,   2,   2,   625.411,   150.715,     0.000,     0.000,     0.000,     0.000,   1,1
  3304,'1 ',1,   2,   2,   533.480,   122.615,     0.000,     0.000,     0.000,     0.000,   1,1
  3305,'1 ',1,   2,   2,   430.321,    61.225,     0.000,     0.000,     0.000,     0.000,   1,1
  3401,'1 ',1,   2,   2,   557.707,   135.909,     0.000,     0.000,     0.000,     0.000,   1,1
  3403,'1 ',1,   2,   2,   515.969,    73.583,     0.000,     0.000,     0.000,     0.000,   1,1
  3404,'1 ',1,   2,   2,   438.463,    62.076,     0.000,     0.000,     0.000,     0.000,   1,1
  3405,'1 ',1,   2,   2,   448.896,    63.723,     0.000,     0.000,     0.000,     0.000,   1,1
  3501,'1 ',1,   2,   2,   625.016,    89.015,     0.000,     0.000,     0.000,     0.000,   1,1
  3601,'1 ',1,   2,   2,   104.856,    14.845,     0.000,     0.000,     0.000,     0.000,   1,1
  3701,'1 ',1,   1,   9,   317.051,    15.847,     0.000,     0.000,     0.000,     0.000,   1,1
  3801,'1 ',1,   2,   2,   191.223,    47.411,     0.000,     0.000,     0.000,     0.000,   1,1
  3804,'1 ',1,   2,   2,   223.641,    55.319,     0.000,     0.000,     0.000,     0.000,   1,1
  3805,'1 ',1,   2,   2,   499.389,   163.106,     0.000,     0.000,     0.000,     0.000,   1,1
  3806,'1 ',1,   2,   2,   289.586,    41.366,     0.000,     0.000,     0.000,     0.000,   1,1
  3902,'1 ',1,   2,   2,   152.991,    38.248,     0.000,     0.000,     0.000,     0.000,   1,1
  3903,'1 ',1,   2,   2,   213.253,    30.271,     0.000,     0.000,     0.000,     0.000,   1,1
  3907,'1 ',1,   2,   2,   461.358,    63.071,     0.000,     0.000,     0.000,     0.000,   1,1
  3908,'1 ',1,   2,   2,   200.281,    24.716,     0.000,     0.000,     0.000,     0.000,   1,1
  3909,'1 ',1,   2,   2,   170.960,    39.786,     0.000,     0.000,     0.000,     0.000,   1,1
  3910,'1 ',1,   2,   2,   241.844,    34.442,     0.000,     0.000,     0.000,     0.000,   1,1
  3911,'1 ',1,   2,   2,   233.138,    47.116,     0.000,     0.000,     0.000,     0.000,   1,1
  3912,'1 ',1,   2,   2,   174.507,    -0.634,     0.000,     0.000,     0.000,     0.000,   1,1
  3913,'1 ',1,   2,   2,   329.548,    43.435,     0.000,     0.000,     0.000,     0.000,   1,1
  3914,'1 ',1,   2,   2,   227.755,    52.549,     0.000,     0.000,     0.000,     0.000,   1,1
  3915,'1 ',1,   2,   2,   254.460,    53.403,     0.000,     0.000,     0.000,     0.000,   1,1
  3916,'1 ',1,   2,   2,   155.005,     0.000,     0.000,     0.000,     0.000,     0.000,   1,1
  3917,'1 ',1,   2,   2,   238.189,    43.995,     0.000,     0.000,     0.000,     0.000,   1,1
  3918,'1 ',1,   2,   2,   319.281,    75.463,     0.000,     0.000,     0.000,     0.000,   1,1
  3919,'1 ',1,   2,   2,   184.512,    24.095,     0.000,     0.000,     0.000,     0.000,   1,1
  3920,'1 ',1,   2,   2,   172.503,    23.677,     0.000,     0.000,     0.000,     0.000,   1,1
  3921,'1 ',1,   2,   2,   150.890,    34.821,     0.000,     0.000,     0.000,     0.000,   1,1
  3922,'1 ',1,   2,   2,   253.450,    31.920,     0.000,     0.000,     0.000,     0.000,   1,1
  3923,'1 ',1,   2,   2,   399.063,    67.021,     0.000,     0.000,     0.000,     0.000,   1,1
  3924,'1 ',1,   2,   2,   332.490,    47.166,     0.000,     0.000,     0.000,     0.000,   1,1
  3926,'1 ',1,   2,   2,   267.355,    16.668,     0.000,     0.000,     0.000,     0.000,   1,1
  4002,'1 ',1,   3,  11,   168.696,    22.001,     0.000,     0.000,     0.000,     0.000,   1,1
  4004,'1 ',1,   3,  11,   270.476,    35.304,     0.000,     0.000,     0.000,     0.000,   1,1
  4005,'1 ',1,   3,  11,   480.114,   157.419,     0.000,     0.000,     0.000,     0.000,   1,1
  4008,'1 ',1,   3,  11,   285.145,    37.198,     0.000,     0.000,     0.000,     0.000,   1,1
  4009,'1 ',1,   3,  11,  2208.742,   431.395,     0.000,     0.000,     0.000,     0.000,   1,1
  4010,'1 ',1,   3,  11,  3133.542,     0.000,     0.000,     0.000,     0.000,     0.000,   1,1
  4101,'1 ',1,   3,  13,   995.028,   129.784,     0.000,     0.000,     0.000,     0.000,   1,1
  4102,'1 ',1,   3,  13,   480.649,    68.664,     0.000,     0.000,     0.000,     0.000,   1,1
  4103,'1 ',1,   3,  13,    11.534,     1.485,     0.000,     0.000,     0.000,     0.000,   1,1
  4104,'1 ',1,   3,  13,  2521.452,   328.093,     0.000,     0.000,     0.000,     0.000,   1,1
  4201,'1 ',1,   3,  13,  5762.659,   461.013,     0.000,     0.000,     0.000,     0.000,   1,1
  4202,'1 ',1,   3,  13,  4558.239,   594.626,     0.000,     0.000,     0.000,     0.000,   1,1
  4203,'1 ',1,   3,  13,  4379.174,   571.213,     0.000,     0.000,     0.000,     0.000,   1,1
  4204,'1 ',1,   3,  13,  1014.517,   132.339,     0.000,     0.000,     0.000,     0.000,   1,1
  5001,'1 ',1,   3,   4,  7574.052,  1721.375,     0.000,     0.000,     0.000,     0.000,   1,1
  5002,'1 ',1,   3,   1,  9003.983,  1174.359,     0.000,     0.000,     0.000,     0.000,   1,1
  5003,'1 ',1,   3,   1,   616.617,    80.618,     0.000,     0.000,     0.000,     0.000,   1,1
  6102,'1 ',1,   3,   6,  1053.144,  -345.277,     0.000,     0.000,     0.000,     0.000,   1,1
  6103,'1 ',1,   3,   6,   391.884,    51.109,     0.000,     0.000,     0.000,     0.000,   1,1
  6104,'1 ',1,   3,   6,  1694.827,   221.051,     0.000,     0.000,     0.000,     0.000,   1,1
  6201,'1 ',1,   3,   8,   205.820,    26.857,     0.000,     0.000,     0.000,     0.000,   1,1
  6202,'1 ',1,   3,   8,    88.645,    13.505,     0.000,     0.000,     0.000,     0.000,   1,1
  6203,'1 ',1,   3,   8,   612.344,   145.092,     0.000,     0.000,     0.000,     0.000,   1,1
  6204,'1 ',1,   3,   8,   698.958,   156.310,     0.000,     0.000,     0.000,     0.000,   1,1
  6205,'1 ',1,   3,   8,   489.283,    86.344,     0.000,     0.000,     0.000,     0.000,   1,1
  6301,'1 ',1,   3,  14,   516.375,    67.362,     0.000,     0.000,     0.000,     0.000,   1,1
  6302,'1 ',1,   3,  14,   591.831,    77.222,     0.000,     0.000,     0.000,     0.000,   1,1
  6303,'1 ',1,   3,  14,   746.602,    97.404,     0.000,     0.000,     0.000,     0.000,   1,1
  6305,'1 ',1,   3,  14,    60.232,    19.752,     0.000,     0.000,     0.000,     0.000,   1,1
  6401,'1 ',1,   1,   9,  1672.454,   218.169,     0.000,     0.000,     0.000,     0.000,   1,1
  6402,'1 ',1,   1,   9,   272.521,    35.568,     0.000,     0.000,     0.000,     0.000,   1,1
  6403,'1 ',1,   1,   9,     2.198,     0.272,     0.000,     0.000,     0.000,     0.000,   1,1
  6404,'1 ',1,   1,   9,    28.981,     3.776,     0.000,     0.000,     0.000,     0.000,   1,1
  6501,'1 ',1,   3,  12,   195.548,    64.130,     0.000,     0.000,     0.000,     0.000,   1,1
  6502,'1 ',1,   3,  12,  1555.598,   277.679,     0.000,     0.000,     0.000,     0.000,   1,1
  6503,'1 ',1,   3,  12,   441.153,   144.603,     0.000,     0.000,     0.000,     0.000,   1,1
  6504,'1 ',1,   3,  12,   296.971,    38.731,     0.000,     0.000,     0.000,     0.000,   1,1
  6505,'1 ',1,   3,  12,     6.795,     2.231,     0.000,     0.000,     0.000,     0.000,   1,1
  6507,'1 ',1,   3,  12,   540.787,   -61.357,     0.000,     0.000,     0.000,     0.000,   1,1
  6508,'1 ',1,   3,  12,   131.835,    43.209,     0.000,     0.000,     0.000,     0.000,   1,1
  6509,'1 ',1,   3,  12,     8.593,     2.817,     0.000,     0.000,     0.000,     0.000,   1,1
  6510,'1 ',1,   3,  12,  1900.043,  -103.882,     0.000,     0.000,     0.000,     0.000,   1,1
  7001,'1 ',1,   3,   5,  7000.918,   772.350,     0.000,     0.000,     0.000,     0.000,   1,1
  7002,'1 ',1,   3,   5,  2554.834,  -138.069,     0.000,     0.000,     0.000,     0.000,   1,1
  8003,'1 ',1,   2,   2,   652.672,    85.141,     0.000,     0.000,     0.000,     0.000,   1,1
  8004,'1 ',1,   2,   2,  3787.893,   494.110,     0.000,     0.000,     0.000,     0.000,   1,1
  8005,'1 ',1,   2,   2,  1321.252,   172.374,     0.000,     0.000,     0.000,     0.000,   1,1
 0 /End of Load data, Begin Fixed shunt data
 0 /End of Fixed shunt data, Begin Generator data
  1003,'DP',    19.000,     0.000,     0.000,     0.000,1.00000,     0,    94.000, 0.00000E+0, 2.00000E-1, 0.00000E+0, 0.00000E+0,1.00000,1,  100.0,    89.300,     0.000,   1,1.0000,    ,      ,    ,      ,    ,      ,3, 1.0000
  1004,'DP',     9.000,     0.000,     0.000,     0.000,1.00000,     0,    45.000, 0.00000E+0, 2.00000E-1, 0.00000E+0, 0.00000E+0,1.00000,1,  100.0,    42.750,     0.000,   1,1.0000,    ,      ,    ,      ,    ,      ,3, 1.0000
  1032,'C ',   693.000,   204.362,  1030.000, -1030.000,1.01695,     0,   873.000, 0.00000E+0, 2.00000E-1, 0.00000E+0, 0.00000E+0,1.00000,1,  100.0,   829.350,     0.000,   1,1.0000
  1032,'G ',   856.000,   252.430,   357.000,  -357.000,1.01695,     0,  1050.000, 0.00000E+0, 2.00000E-1, 0.00000E+0, 0.00000E+0,1.00000,1,  100.0,   997.500,     0.000,   1,1.0000
  1032,'S ',   520.000,   153.345,   360.000,  -360.000,1.01695,     0,   638.000, 0.00000E+0, 2.00000E-1, 0.00000E+0, 0.00000E+0,1.00000,1,  100.0,   606.100,     0.000,   1,1.0000,    ,      ,    ,      ,    ,      ,1, 1.0000
  1034,'C ',  1838.000,   187.122,  2294.000, -2294.000,1.04386,     0,  1944.000, 0.00000E+0, 2.00000E-1, 0.00000E+0, 0.00000E+0,1.00000,1,  100.0,  1846.800,     0.000,   1,1.0000
  1034,'G ',  2565.000,   261.137,   918.000,  -918.000,1.04386,     0,  2700.000, 0.00000E+0, 2.00000E-1, 0.00000E+0, 0.00000E+0,1.00000,1,  100.0,  2565.000,     0.000,   1,1.0000
  1034,'S ',     0.000,     0.000,     0.000,     0.000,1.04386,     0,     1.000, 0.00000E+0, 2.00000E-1, 0.00000E+0, 0.00000E+0,1.00000,0,  100.0,     0.100,     0.000,   1,1.0000,    ,      ,    ,      ,    ,      ,1, 1.0000
  1034,'W ',  1590.000,   161.874,   800.000,  -800.000,1.04386,     0,  1682.000, 0.00000E+0, 2.00000E-1, 0.00000E+0, 0.00000E+0,1.00000,1,  100.0,  1597.900,     0.000,   1,1.0000,    ,      ,    ,      ,    ,      ,1, 1.0000
  1101,'DP',    59.000,     0.000,     0.000,     0.000,1.00000,     0,   295.000, 0.00000E+0, 2.00000E-1, 0.00000E+0, 0.00000E+0,1.00000,1,  100.0,   280.250,     0.000,   1,1.0000,    ,      ,    ,      ,    ,      ,3, 1.0000
  1131,'C ',   530.000,    36.802,   308.000,  -308.000,1.01081,     0,  1268.000, 0.00000E+0, 2.00000E-1, 0.00000E+0, 0.00000E+0,1.00000,1,  100.0,  1204.600,     0.000,   1,1.0000
  1131,'G ',  2064.000,   143.318,  1916.000, -1916.000,1.01081,     0,  4934.000, 0.00000E+0, 2.00000E-1, 0.00000E+0, 0.00000E+0,1.00000,1,  100.0,  4687.300,     0.000,   1,1.0000
  1131,'S ',     0.000,     0.000,     0.000,     0.000,1.01081,     0,     1.000, 0.00000E+0, 2.00000E-1, 0.00000E+0, 0.00000E+0,1.00000,0,  100.0,     0.100,     0.000,   1,1.0000,    ,      ,    ,      ,    ,      ,1, 1.0000
  1232,'C ',  2678.000,   162.143,  1208.000, -1208.000,1.08082,     0,  4977.000, 0.00000E+0, 2.00000E-1, 0.00000E+0, 0.00000E+0,1.00000,1,  100.0,  4728.150,     0.000,   1,1.0000
  1232,'H ',   637.000,    38.568,   628.000,  -628.000,1.08082,     0,  1199.000, 0.00000E+0, 2.00000E-1, 0.00000E+0, 0.00000E+0,1.00000,1,  100.0,  1139.050,     0.000,   1,1.0000
  1232,'S ',     0.000,     0.000,     0.000,     0.000,1.08082,     0,     1.000, 0.00000E+0, 2.00000E-1, 0.00000E+0, 0.00000E+0,1.00000,0,  100.0,     0.100,     0.000,   1,1.0000,    ,      ,    ,      ,    ,      ,1, 1.0000
  1301,'DP',    35.000,     0.000,     0.000,     0.000,1.00000,     0,   176.000, 0.00000E+0, 2.00000E-1, 0.00000E+0, 0.00000E+0,1.00000,1,  100.0,   167.200,     0.000,   1,1.0000,    ,      ,    ,      ,    ,      ,3, 1.0000
  1303,'DP',    45.000,     0.000,     0.000,     0.000,1.00000,     0,   224.000, 0.00000E+0, 2.00000E-1, 0.00000E+0, 0.00000E+0,1.00000,1,  100.0,   212.800,     0.000,   1,1.0000,    ,      ,    ,      ,    ,      ,3, 1.0000
  1331,'G ',  1971.000,    32.053,   841.000,  -841.000,1.04514,     0,  2167.000, 0.00000E+0, 2.00000E-1, 0.00000E+0, 0.00000E+0,1.00000,1,  100.0,  2058.650,     0.000,   1,1.0000
  1331,'H ',  2113.000,    34.362,  1219.000, -1219.000,1.04514,     0,  2328.000, 0.00000E+0, 2.00000E-1, 0.00000E+0, 0.00000E+0,1.00000,1,  100.0,  2211.600,     0.000,   1,1.0000
  1331,'S ',     0.000,     0.000,     0.000,     0.000,1.04514,     0,     1.000, 0.00000E+0, 2.00000E-1, 0.00000E+0, 0.00000E+0,1.00000,0,  100.0,     0.100,     0.000,   1,1.0000,    ,      ,    ,      ,    ,      ,1, 1.0000
  1333,'C ',   212.000,    34.742,   303.000,  -303.000,1.00879,     0,   418.000, 0.00000E+0, 2.00000E-1, 0.00000E+0, 0.00000E+0,1.00000,1,  100.0,   397.100,     0.000,   1,1.0000
  1333,'G ',  3577.000,   586.190,  2746.000, -2746.000,1.00879,     0,  7011.000, 0.00000E+0, 2.00000E-1, 0.00000E+0, 0.00000E+0,1.00000,1,  100.0,  6660.450,     0.000,   1,1.0000
  1333,'S ',  1266.000,   207.469,  1300.000, -1300.000,1.00879,     0,  2423.000, 0.00000E+0, 2.00000E-1, 0.00000E+0, 0.00000E+0,1.00000,1,  100.0,  2301.850,     0.000,   1,1.0000,    ,      ,    ,      ,    ,      ,1, 1.0000
  1401,'DP',    85.000,     0.000,     0.000,     0.000,1.00000,     0,   425.000, 0.00000E+0, 2.00000E-1, 0.00000E+0, 0.00000E+0,1.00000,1,  100.0,   403.750,     0.000,   1,1.0000,    ,      ,    ,      ,    ,      ,3, 1.0000
  1402,'DP',    70.000,     0.000,     0.000,     0.000,1.00000,     0,   349.000, 0.00000E+0, 2.00000E-1, 0.00000E+0, 0.00000E+0,1.00000,1,  100.0,   331.550,     0.000,   1,1.0000,    ,      ,    ,      ,    ,      ,3, 1.0000
  1431,'G ',  4970.000,   787.893,  3559.000, -3559.000,1.04071,     0,  9170.000, 0.00000E+0, 2.00000E-1, 0.00000E+0, 0.00000E+0,1.00000,1,  100.0,  8711.500,     0.000,   1,1.0000
  1431,'N ',  2251.000,   356.851,  2057.000, -2057.000,1.04071,     0,  4210.000, 0.00000E+0, 2.00000E-1, 0.00000E+0, 0.00000E+0,1.00000,1,  100.0,  3999.500,     0.000,   1,1.0000
  1431,'S ',  1353.000,   214.491,  1000.000, -1000.000,1.04071,     0,  2419.000, 0.00000E+0, 2.00000E-1, 0.00000E+0, 0.00000E+0,1.00000,1,  100.0,  2298.050,     0.000,   1,1.0000,    ,      ,    ,      ,    ,      ,1, 1.0000
  2030,'E ',   684.000,    86.401,   350.000,  -350.000,1.00150,     0,   699.000, 0.00000E+0, 2.00000E-1, 0.00000E+0, 0.00000E+0,1.00000,1,  100.0,   664.050,     0.000,   1,1.0000
  2030,'G ',  1813.000,   229.012,  1070.000, -1070.000,1.00150,     0,  2140.000, 0.00000E+0, 2.00000E-1, 0.00000E+0, 0.00000E+0,1.00000,1,  100.0,  2033.000,     0.000,   1,1.0000
  2130,'E ',   563.000,    73.294,   254.000,  -254.000,1.03579,     0,   831.000, 0.00000E+0, 2.00000E-1, 0.00000E+0, 0.00000E+0,1.00000,1,  100.0,   789.450,     0.000,   1,1.0000
  2130,'G ',   394.000,    51.293,   200.000,  -200.000,1.03579,     0,   586.000, 0.00000E+0, 2.00000E-1, 0.00000E+0, 0.00000E+0,1.00000,1,  100.0,   556.700,     0.000,   1,1.0000
  2130,'H ',   263.000,    34.239,   250.000,  -250.000,1.03579,     0,   396.000, 0.00000E+0, 2.00000E-1, 0.00000E+0, 0.00000E+0,1.00000,1,  100.0,   376.200,     0.000,   1,1.0000
  2130,'S ',    76.000,     9.894,    86.000,   -86.000,1.03579,     0,   115.000, 0.00000E+0, 2.00000E-1, 0.00000E+0, 0.00000E+0,1.00000,1,  100.0,   109.250,     0.000,   1,1.0000,    ,      ,    ,      ,    ,      ,1, 1.0000
  2202,'DP',    61.000,     0.000,     0.000,     0.000,1.00000,     0,   305.000, 0.00000E+0, 2.00000E-1, 0.00000E+0, 0.00000E+0,1.00000,1,  100.0,   289.750,     0.000,   1,1.0000,    ,      ,    ,      ,    ,      ,3, 1.0000
  2203,'DP',    67.000,     0.000,     0.000,     0.000,1.00000,     0,   337.000, 0.00000E+0, 2.00000E-1, 0.00000E+0, 0.00000E+0,1.00000,1,  100.0,   320.150,     0.000,   1,1.0000,    ,      ,    ,      ,    ,      ,3, 1.0000
  2233,'DG',   215.000,   142.095,   304.000,  -304.000,1.00749,     0,  1035.000, 0.00000E+0, 2.00000E-1, 0.00000E+0, 0.00000E+0,1.00000,1,  100.0,   983.250,     0.000,   1,1.0000
  2233,'EG',   393.000,   259.736,   611.000,  -611.000,1.00749,     0,  1837.000, 0.00000E+0, 2.00000E-1, 0.00000E+0, 0.00000E+0,1.00000,1,  100.0,  1745.150,     0.000,   1,1.0000
  2233,'S ',     0.000,     0.000,     0.000,     0.000,1.00749,     0,     1.000, 0.00000E+0, 2.00000E-1, 0.00000E+0, 0.00000E+0,1.00000,0,  100.0,     0.100,     0.000,   1,1.0000,    ,      ,    ,      ,    ,      ,1, 1.0000
  2233,'TG',   152.000,   100.458,   206.000,  -206.000,1.00749,     0,   733.000, 0.00000E+0, 2.00000E-1, 0.00000E+0, 0.00000E+0,1.00000,1,  100.0,   696.350,     0.000,   1,1.0000
  2332,'S ',   878.000,   126.627,   590.000,  -590.000,1.03560,     0,  1333.000, 0.00000E+0, 2.00000E-1, 0.00000E+0, 0.00000E+0,1.00000,1,  100.0,  1266.350,     0.000,   1,1.0000,    ,      ,    ,      ,    ,      ,1, 1.0000
  2400,'DP',    33.000,     0.000,     0.000,     0.000,1.00000,     0,   166.000, 0.00000E+0, 2.00000E-1, 0.00000E+0, 0.00000E+0,1.00000,1,  100.0,   157.700,     0.000,   1,1.0000,    ,      ,    ,      ,    ,      ,3, 1.0000
  2401,'DP',    35.000,     0.000,     0.000,     0.000,1.00000,     0,   174.000, 0.00000E+0, 2.00000E-1, 0.00000E+0, 0.00000E+0,1.00000,1,  100.0,   165.300,     0.000,   1,1.0000,    ,      ,    ,      ,    ,      ,3, 1.0000
  2402,'DP',    43.000,     0.000,     0.000,     0.000,1.00000,     0,   213.000, 0.00000E+0, 2.00000E-1, 0.00000E+0, 0.00000E+0,1.00000,1,  100.0,   202.350,     0.000,   1,1.0000,    ,      ,    ,      ,    ,      ,3, 1.0000
  2403,'DP',    41.000,     0.000,     0.000,     0.000,1.00000,     0,   207.000, 0.00000E+0, 2.00000E-1, 0.00000E+0, 0.00000E+0,1.00000,1,  100.0,   196.650,     0.000,   1,1.0000,    ,      ,    ,      ,    ,      ,3, 1.0000
  2405,'DP',    33.000,     0.000,     0.000,     0.000,1.00000,     0,   163.000, 0.00000E+0, 2.00000E-1, 0.00000E+0, 0.00000E+0,1.00000,1,  100.0,   154.850,     0.000,   1,1.0000,    ,      ,    ,      ,    ,      ,3, 1.0000
  2406,'DP',    29.000,     0.000,     0.000,     0.000,1.00000,     0,   145.000, 0.00000E+0, 2.00000E-1, 0.00000E+0, 0.00000E+0,1.00000,1,  100.0,   137.750,     0.000,   1,1.0000,    ,      ,    ,      ,    ,      ,3, 1.0000
  2407,'DP',    68.000,     0.000,     0.000,     0.000,1.00000,     0,   342.000, 0.00000E+0, 2.00000E-1, 0.00000E+0, 0.00000E+0,1.00000,1,  100.0,   324.900,     0.000,   1,1.0000,    ,      ,    ,      ,    ,      ,3, 1.0000
  2408,'DP',    69.000,     0.000,     0.000,     0.000,1.00000,     0,   344.000, 0.00000E+0, 2.00000E-1, 0.00000E+0, 0.00000E+0,1.00000,1,  100.0,   326.800,     0.000,   1,1.0000,    ,      ,    ,      ,    ,      ,3, 1.0000
  2409,'DP',    63.000,     0.000,     0.000,     0.000,1.00000,     0,   316.000, 0.00000E+0, 2.00000E-1, 0.00000E+0, 0.00000E+0,1.00000,1,  100.0,   300.200,     0.000,   1,1.0000,    ,      ,    ,      ,    ,      ,3, 1.0000
  2410,'DP',    62.000,     0.000,     0.000,     0.000,1.00000,     0,   311.000, 0.00000E+0, 2.00000E-1, 0.00000E+0, 0.00000E+0,1.00000,1,  100.0,   295.450,     0.000,   1,1.0000,    ,      ,    ,      ,    ,      ,3, 1.0000
  2411,'DP',    43.000,     0.000,     0.000,     0.000,1.00000,     0,   214.000, 0.00000E+0, 2.00000E-1, 0.00000E+0, 0.00000E+0,1.00000,1,  100.0,   203.300,     0.000,   1,1.0000,    ,      ,    ,      ,    ,      ,3, 1.0000
  2431,'S ',   500.000,   320.668,   800.000,  -800.000,1.05000,     0,  1666.000, 0.00000E+0, 2.00000E-1, 0.00000E+0, 0.00000E+0,1.00000,1,  100.0,  1582.700,     0.000,   1,1.0000,    ,      ,    ,      ,    ,      ,1, 1.0000
  2434,'S ',   500.000,  -225.002,   500.000,  -500.000,1.02000,     0,  1489.000, 0.00000E+0, 2.00000E-1, 0.00000E+0, 0.00000E+0,1.00000,1,  100.0,  1414.550,     0.000,   1,1.0000,    ,      ,    ,      ,    ,      ,1, 1.0000
  2438,'EG',   473.000,    22.459,   728.000,  -728.000,1.00984,     0,  2292.000, 0.00000E+0, 2.00000E-1, 0.00000E+0, 0.00000E+0,1.00000,1,  100.0,  2177.400,     0.000,   1,1.0000
  2438,'ND',     0.000,     0.000,     0.500,     0.000,1.00984,     0,   100.000, 0.00000E+0, 2.00000E-1, 0.00000E+0, 0.00000E+0,1.00000,1,  100.0,     0.000, -1006.000,   1,1.0000
  2438,'RG',  1096.000,    52.041,  1902.000, -1902.000,1.00984,     0,  5451.000, 0.00000E+0, 2.00000E-1, 0.00000E+0, 0.00000E+0,1.00000,1,  100.0,  5178.450,     0.000,   1,1.0000
  2438,'S ',   221.000,    10.494,   800.000,  -800.000,1.00984,     0,  1146.000, 0.00000E+0, 2.00000E-1, 0.00000E+0, 0.00000E+0,1.00000,1,  100.0,  1088.700,     0.000,   1,1.0000,    ,      ,    ,      ,    ,      ,1, 1.0000
  2438,'SG',   861.000,    40.882,  2301.000, -2301.000,1.00984,     0,  4110.000, 0.00000E+0, 2.00000E-1, 0.00000E+0, 0.00000E+0,1.00000,1,  100.0,  3904.500,     0.000,   1,1.0000
  2438,'SH',   206.000,     9.781,   659.000,  -659.000,1.00984,     0,  1460.000, 0.00000E+0, 2.00000E-1, 0.00000E+0, 0.00000E+0,1.00000,1,  100.0,  1387.000,     0.000,   1,1.0000
  2438,'SW',   664.000,    31.528,   561.000,  -561.000,1.00984,     0,  3210.000, 0.00000E+0, 2.00000E-1, 0.00000E+0, 0.00000E+0,1.00000,1,  100.0,  3049.500,     0.000,   1,1.0000,    ,      ,    ,      ,    ,      ,1, 1.0000
  2438,'WG',  1176.000,    55.839,  1910.000, -1910.000,1.00984,     0,  5817.000, 0.00000E+0, 2.00000E-1, 0.00000E+0, 0.00000E+0,1.00000,1,  100.0,  5526.150,     0.000,   1,1.0000
  2439,'S ',  1000.000,  -229.107,   800.000,  -800.000,1.01978,     0,  1666.000, 0.00000E+0, 2.00000E-1, 0.00000E+0, 0.00000E+0,1.00000,1,  100.0,  1582.700,     0.000,   1,1.0000,    ,      ,    ,      ,    ,      ,1, 1.0000
  2502,'DP',    93.000,     0.000,     0.000,     0.000,1.00000,     0,   467.000, 0.00000E+0, 2.00000E-1, 0.00000E+0, 0.00000E+0,1.00000,1,  100.0,   443.650,     0.000,   1,1.0000,    ,      ,    ,      ,    ,      ,3, 1.0000
  2503,'DP',    73.000,     0.000,     0.000,     0.000,1.00000,     0,   364.000, 0.00000E+0, 2.00000E-1, 0.00000E+0, 0.00000E+0,1.00000,1,  100.0,   345.800,     0.000,   1,1.0000,    ,      ,    ,      ,    ,      ,3, 1.0000
  2533,'S ',  1899.000,   218.405,  1100.000, -1100.000,1.01004,     0,  1999.000, 0.00000E+0, 2.00000E-1, 0.00000E+0, 0.00000E+0,1.00000,1,  100.0,  1899.050,     0.000,   1,1.0000,    ,      ,    ,      ,    ,      ,1, 1.0000
  2613,'DP',    13.000,     0.000,     0.000,     0.000,1.00000,     0,    63.000, 0.00000E+0, 2.00000E-1, 0.00000E+0, 0.00000E+0,1.00000,1,  100.0,    59.850,     0.000,   1,1.0000,    ,      ,    ,      ,    ,      ,3, 1.0000
  2615,'DP',    32.000,     0.000,     0.000,     0.000,1.00000,     0,   158.000, 0.00000E+0, 2.00000E-1, 0.00000E+0, 0.00000E+0,1.00000,1,  100.0,   150.100,     0.000,   1,1.0000,    ,      ,    ,      ,    ,      ,3, 1.0000
  2618,'DP',    35.000,     0.000,     0.000,     0.000,1.00000,     0,   174.000, 0.00000E+0, 2.00000E-1, 0.00000E+0, 0.00000E+0,1.00000,1,  100.0,   165.300,     0.000,   1,1.0000,    ,      ,    ,      ,    ,      ,3, 1.0000
  2630,'G ',  2269.000,   184.546,  1346.000, -1346.000,1.00486,     0,  3947.000, 0.00000E+0, 2.00000E-1, 0.00000E+0, 0.00000E+0,1.00000,1,  100.0,  3749.650,     0.000,   1,1.0000
  2630,'S ',     0.000,     0.000,     0.000,     0.000,1.00486,     0,     1.000, 0.00000E+0, 2.00000E-1, 0.00000E+0, 0.00000E+0,1.00000,0,  100.0,     0.100,     0.000,   1,1.0000,    ,      ,    ,      ,    ,      ,1, 1.0000
  2631,'S ',   232.000,    57.660,   350.000,  -350.000,1.01800,     0,   520.000, 0.00000E+0, 2.00000E-1, 0.00000E+0, 0.00000E+0,1.00000,1,  100.0,   494.000,     0.000,   1,1.0000,    ,      ,    ,      ,    ,      ,1, 1.0000
  2634,'C ',  1537.000,   425.523,   950.000,  -950.000,1.06198,     0,  1618.000, 0.00000E+0, 2.00000E-1, 0.00000E+0, 0.00000E+0,1.00000,1,  100.0,  1537.100,     0.000,   1,1.0000
  2634,'S ',     0.000,     0.000,     0.000,     0.000,1.06198,     0,     1.000, 0.00000E+0, 2.00000E-1, 0.00000E+0, 0.00000E+0,1.00000,0,  100.0,     0.100,     0.000,   1,1.0000,    ,      ,    ,      ,    ,      ,1, 1.0000
  2637,'H ',    13.000,    57.651,   110.000,  -110.000,1.01528,     0,    87.000, 0.00000E+0, 2.00000E-1, 0.00000E+0, 0.00000E+0,1.00000,1,  100.0,    82.650,     0.000,   1,1.0000
  2638,'H ',     0.000,    57.650,   100.000,  -100.000,1.02018,     0,   407.000, 0.00000E+0, 2.00000E-1, 0.00000E+0, 0.00000E+0,1.00000,1,  100.0,   386.650,     0.000,   1,1.0000
  3101,'DP',    13.000,     0.000,     0.000,     0.000,1.00000,     0,    67.000, 0.00000E+0, 2.00000E-1, 0.00000E+0, 0.00000E+0,1.00000,1,  100.0,    63.650,     0.000,   1,1.0000,    ,      ,    ,      ,    ,      ,3, 1.0000
  3103,'DP',    17.000,     0.000,     0.000,     0.000,1.00000,     0,    83.000, 0.00000E+0, 2.00000E-1, 0.00000E+0, 0.00000E+0,1.00000,1,  100.0,    78.850,     0.000,   1,1.0000,    ,      ,    ,      ,    ,      ,3, 1.0000
  3104,'DP',    12.000,     0.000,     0.000,     0.000,1.00000,     0,    61.000, 0.00000E+0, 2.00000E-1, 0.00000E+0, 0.00000E+0,1.00000,1,  100.0,    57.950,     0.000,   1,1.0000,    ,      ,    ,      ,    ,      ,3, 1.0000
  3133,'NG',     1.000,    42.000,    42.000,   -42.000,1.00114,     0,    62.000, 0.00000E+0, 2.00000E-1, 0.00000E+0, 0.00000E+0,1.00000,1,  100.0,    58.900,     0.000,   1,1.0000
  3133,'S ',     0.000,     0.000,     0.000,     0.000,1.00114,     0,     1.000, 0.00000E+0, 2.00000E-1, 0.00000E+0, 0.00000E+0,1.00000,0,  100.0,     0.100,     0.000,   1,1.0000,    ,      ,    ,      ,    ,      ,1, 1.0000
  3133,'SC',     0.000,   187.058,   500.000,  -500.000,1.00114,     0,   500.000, 0.00000E+0, 2.00000E-1, 0.00000E+0, 0.00000E+0,1.00000,1,  100.0,     0.100,     0.000,   1,1.0000
  3135,'MG',   206.000,    82.343,   239.000,  -239.000,1.00044,     0,   541.000, 0.00000E+0, 2.00000E-1, 0.00000E+0, 0.00000E+0,1.00000,1,  100.0,   513.950,     0.000,   1,1.0000
  3135,'NG',    14.000,     5.596,   100.000,  -100.000,1.00044,     0,    38.000, 0.00000E+0, 2.00000E-1, 0.00000E+0, 0.00000E+0,1.00000,1,  100.0,    36.100,     0.000,   1,1.0000
  3135,'S ',     0.000,     0.000,     0.000,     0.000,1.00044,     0,     1.000, 0.00000E+0, 2.00000E-1, 0.00000E+0, 0.00000E+0,1.00000,0,  100.0,     0.100,     0.000,   1,1.0000,    ,      ,    ,      ,    ,      ,1, 1.0000
  3201,'DP',    18.000,     0.000,     0.000,     0.000,1.00000,     0,    91.000, 0.00000E+0, 2.00000E-1, 0.00000E+0, 0.00000E+0,1.00000,1,  100.0,    86.450,     0.000,   1,1.0000,    ,      ,    ,      ,    ,      ,3, 1.0000
  3202,'DP',    23.000,     0.000,     0.000,     0.000,1.00000,     0,   116.000, 0.00000E+0, 2.00000E-1, 0.00000E+0, 0.00000E+0,1.00000,1,  100.0,   110.200,     0.000,   1,1.0000,    ,      ,    ,      ,    ,      ,3, 1.0000
  3203,'DP',    26.000,     0.000,     0.000,     0.000,1.00000,     0,   130.000, 0.00000E+0, 2.00000E-1, 0.00000E+0, 0.00000E+0,1.00000,1,  100.0,   123.500,     0.000,   1,1.0000,    ,      ,    ,      ,    ,      ,3, 1.0000
  3204,'DP',    26.000,     0.000,     0.000,     0.000,1.00000,     0,   132.000, 0.00000E+0, 2.00000E-1, 0.00000E+0, 0.00000E+0,1.00000,1,  100.0,   125.400,     0.000,   1,1.0000,    ,      ,    ,      ,    ,      ,3, 1.0000
  3205,'DP',    22.000,     0.000,     0.000,     0.000,1.00000,     0,   108.000, 0.00000E+0, 2.00000E-1, 0.00000E+0, 0.00000E+0,1.00000,1,  100.0,   102.600,     0.000,   1,1.0000,    ,      ,    ,      ,    ,      ,3, 1.0000
  3234,'DG',   104.000,    12.298,   101.000,  -101.000,1.01213,     0,   177.000, 0.00000E+0, 2.00000E-1, 0.00000E+0, 0.00000E+0,1.00000,1,  100.0,   168.150,     0.000,   1,1.0000
  3234,'MG',  2256.000,   266.764,  1244.000, -1244.000,1.01213,     0,  3853.000, 0.00000E+0, 2.00000E-1, 0.00000E+0, 0.00000E+0,1.00000,1,  100.0,  3660.350,     0.000,   1,1.0000
  3234,'NG',   605.000,    71.539,   382.000,  -382.000,1.01213,     0,  1037.000, 0.00000E+0, 2.00000E-1, 0.00000E+0, 0.00000E+0,1.00000,1,  100.0,   985.150,     0.000,   1,1.0000
  3234,'NW',  1016.000,   120.138,   150.000,  -150.000,1.01213,     0,  1740.000, 0.00000E+0, 2.00000E-1, 0.00000E+0, 0.00000E+0,1.00000,1,  100.0,  1653.000,     0.000,   1,1.0000,    ,      ,    ,      ,    ,      ,1, 1.0000
  3234,'S ',     0.000,     0.000,     0.000,     0.000,1.01213,     0,     1.000, 0.00000E+0, 2.00000E-1, 0.00000E+0, 0.00000E+0,1.00000,0,  100.0,     0.100,     0.000,   1,1.0000,    ,      ,    ,      ,    ,      ,1, 1.0000
  3302,'DP',    14.000,     0.000,     0.000,     0.000,1.00000,     0,    68.000, 0.00000E+0, 2.00000E-1, 0.00000E+0, 0.00000E+0,1.00000,1,  100.0,    64.600,     0.000,   1,1.0000,    ,      ,    ,      ,    ,      ,3, 1.0000
  3303,'DP',    25.000,     0.000,     0.000,     0.000,1.00000,     0,   123.000, 0.00000E+0, 2.00000E-1, 0.00000E+0, 0.00000E+0,1.00000,1,  100.0,   116.850,     0.000,   1,1.0000,    ,      ,    ,      ,    ,      ,3, 1.0000
  3304,'DP',    21.000,     0.000,     0.000,     0.000,1.00000,     0,   105.000, 0.00000E+0, 2.00000E-1, 0.00000E+0, 0.00000E+0,1.00000,1,  100.0,    99.750,     0.000,   1,1.0000,    ,      ,    ,      ,    ,      ,3, 1.0000
  3305,'DP',    17.000,     0.000,     0.000,     0.000,1.00000,     0,    85.000, 0.00000E+0, 2.00000E-1, 0.00000E+0, 0.00000E+0,1.00000,1,  100.0,    80.750,     0.000,   1,1.0000,    ,      ,    ,      ,    ,      ,3, 1.0000
  3333,'CG',   560.000,   350.972,   398.000,  -398.000,1.00226,     0,  1012.000, 0.00000E+0, 2.00000E-1, 0.00000E+0, 0.00000E+0,1.00000,1,  100.0,   961.400,     0.000,   1,1.0000
  3333,'NG',   166.000,   104.038,   202.000,  -202.000,1.00226,     0,   312.000, 0.00000E+0, 2.00000E-1, 0.00000E+0, 0.00000E+0,1.00000,1,  100.0,   296.400,     0.000,   1,1.0000
  3333,'S ',     0.000,     0.000,     0.000,     0.000,1.00226,     0,     1.000, 0.00000E+0, 2.00000E-1, 0.00000E+0, 0.00000E+0,1.00000,0,  100.0,     0.100,     0.000,   1,1.0000,    ,      ,    ,      ,    ,      ,1, 1.0000
  3401,'DP',    22.000,     0.000,     0.000,     0.000,1.00000,     0,   110.000, 0.00000E+0, 2.00000E-1, 0.00000E+0, 0.00000E+0,1.00000,1,  100.0,   104.500,     0.000,   1,1.0000,    ,      ,    ,      ,    ,      ,3, 1.0000
  3403,'DP',    20.000,     0.000,     0.000,     0.000,1.00000,     0,   102.000, 0.00000E+0, 2.00000E-1, 0.00000E+0, 0.00000E+0,1.00000,1,  100.0,    96.900,     0.000,   1,1.0000,    ,      ,    ,      ,    ,      ,3, 1.0000
  3404,'DP',    17.000,     0.000,     0.000,     0.000,1.00000,     0,    86.000, 0.00000E+0, 2.00000E-1, 0.00000E+0, 0.00000E+0,1.00000,1,  100.0,    81.700,     0.000,   1,1.0000,    ,      ,    ,      ,    ,      ,3, 1.0000
  3405,'DP',    18.000,     0.000,     0.000,     0.000,1.00000,     0,    88.000, 0.00000E+0, 2.00000E-1, 0.00000E+0, 0.00000E+0,1.00000,1,  100.0,    83.600,     0.000,   1,1.0000,    ,      ,    ,      ,    ,      ,3, 1.0000
  3432,'NP',     0.000,   130.257,  1568.000, -1568.000,1.00065,     0,  3746.000, 0.00000E+0, 2.00000E-1, 0.00000E+0, 0.00000E+0,1.00000,1,  100.0,  3558.700, -2841.000,   1,1.0000
  3433,'NG',   360.000,    15.921,   231.000,  -231.000,1.00023,     0,   921.000, 0.00000E+0, 2.00000E-1, 0.00000E+0, 0.00000E+0,1.00000,1,  100.0,   874.950,     0.000,   1,1.0000
  3433,'S ',   745.000,    32.947,   939.000,  -939.000,1.00023,     0,  1426.000, 0.00000E+0, 2.00000E-1, 0.00000E+0, 0.00000E+0,1.00000,1,  100.0,  1354.700,     0.000,   1,1.0000,    ,      ,    ,      ,    ,      ,1, 1.0000
  3501,'DP',    25.000,     0.000,     0.000,     0.000,1.00000,     0,   123.000, 0.00000E+0, 2.00000E-1, 0.00000E+0, 0.00000E+0,1.00000,1,  100.0,   116.850,     0.000,   1,1.0000,    ,      ,    ,      ,    ,      ,3, 1.0000
  3531,'CE',   763.000,    84.080,  1004.000, -1004.000,1.00057,     0,  1424.000, 0.00000E+0, 2.00000E-1, 0.00000E+0, 0.00000E+0,1.00000,1,  100.0,  1352.800,     0.000,   1,1.0000
  3531,'NE',   288.000,    31.737,   253.000,  -253.000,1.00057,     0,   533.000, 0.00000E+0, 2.00000E-1, 0.00000E+0, 0.00000E+0,1.00000,1,  100.0,   506.350,     0.000,   1,1.0000
  3531,'NH',    13.000,     1.433,    13.000,   -13.000,1.00057,     0,    24.000, 0.00000E+0, 2.00000E-1, 0.00000E+0, 0.00000E+0,1.00000,1,  100.0,    22.800,     0.000,   1,1.0000
  3631,'NB',    30.000,    -2.729,    20.000,   -20.000,1.01496,     0,    96.000, 0.00000E+0, 2.00000E-1, 0.00000E+0, 0.00000E+0,1.00000,1,  100.0,    91.200,     0.000,   1,1.0000
  3631,'NG',    67.000,    -6.094,    74.000,   -74.000,1.01496,     0,   210.000, 0.00000E+0, 2.00000E-1, 0.00000E+0, 0.00000E+0,1.00000,1,  100.0,   199.500,     0.000,   1,1.0000
  3631,'S ',     0.000,     0.000,     0.000,     0.000,1.01496,     0,     1.000, 0.00000E+0, 2.00000E-1, 0.00000E+0, 0.00000E+0,1.00000,0,  100.0,     0.100,     0.000,   1,1.0000,    ,      ,    ,      ,    ,      ,1, 1.0000
  3731,'NH',   222.000,   112.477,   200.000,  -200.000,1.00056,     0,   243.000, 0.00000E+0, 2.00000E-1, 0.00000E+0, 0.00000E+0,1.00000,1,  100.0,   230.850,     0.000,   1,1.0000
  3805,'DP',    20.000,     0.000,     0.000,     0.000,1.00000,     0,    98.000, 0.00000E+0, 2.00000E-1, 0.00000E+0, 0.00000E+0,1.00000,1,  100.0,    93.100,     0.000,   1,1.0000,    ,      ,    ,      ,    ,      ,3, 1.0000
  3831,'NN',  2108.000,    35.098,  1175.000, -1175.000,1.04912,     0,  2323.000, 0.00000E+0, 2.00000E-1, 0.00000E+0, 0.00000E+0,1.00000,1,  100.0,  2206.850,     0.000,   1,1.0000
  3835,'ND',     0.000,     0.000,     0.500,     0.000,1.03567,     0,   100.000, 0.00000E+0, 2.00000E-1, 0.00000E+0, 0.00000E+0,1.00000,1,  100.0,     0.000,  -510.000,   1,1.0000
  3835,'NG',   209.000,    81.349,   662.000,  -662.000,1.03567,     0,  2025.000, 0.00000E+0, 2.00000E-1, 0.00000E+0, 0.00000E+0,1.00000,1,  100.0,  1923.750,     0.000,   1,1.0000
  3835,'S ',   150.000,    58.385,   500.000,  -500.000,1.03567,     0,  1333.000, 0.00000E+0, 2.00000E-1, 0.00000E+0, 0.00000E+0,1.00000,1,  100.0,  1266.350,     0.000,   1,1.0000,    ,      ,    ,      ,    ,      ,1, 1.0000
  3836,'DG',   679.000,    -0.837,   476.000,  -476.000,1.01899,     0,  1497.000, 0.00000E+0, 2.00000E-1, 0.00000E+0, 0.00000E+0,1.00000,1,  100.0,  1422.150,     0.000,   1,1.0000
  3836,'S ',     0.000,     0.000,     0.000,     0.000,1.01899,     0,     1.000, 0.00000E+0, 2.00000E-1, 0.00000E+0, 0.00000E+0,1.00000,0,  100.0,     0.100,     0.000,   1,1.0000,    ,      ,    ,      ,    ,      ,1, 1.0000
  3907,'DP',    18.000,     0.000,     0.000,     0.000,1.00000,     0,    91.000, 0.00000E+0, 2.00000E-1, 0.00000E+0, 0.00000E+0,1.00000,1,  100.0,    86.450,     0.000,   1,1.0000,    ,      ,    ,      ,    ,      ,3, 1.0000
  3913,'DP',    13.000,     0.000,     0.000,     0.000,1.00000,     0,    65.000, 0.00000E+0, 2.00000E-1, 0.00000E+0, 0.00000E+0,1.00000,1,  100.0,    61.750,     0.000,   1,1.0000,    ,      ,    ,      ,    ,      ,3, 1.0000
  3918,'DP',    13.000,     0.000,     0.000,     0.000,1.00000,     0,    63.000, 0.00000E+0, 2.00000E-1, 0.00000E+0, 0.00000E+0,1.00000,1,  100.0,    59.850,     0.000,   1,1.0000,    ,      ,    ,      ,    ,      ,3, 1.0000
  3923,'DP',    16.000,     0.000,     0.000,     0.000,1.00000,     0,    79.000, 0.00000E+0, 2.00000E-1, 0.00000E+0, 0.00000E+0,1.00000,1,  100.0,    75.050,     0.000,   1,1.0000,    ,      ,    ,      ,    ,      ,3, 1.0000
  3924,'DP',    13.000,     0.000,     0.000,     0.000,1.00000,     0,    66.000, 0.00000E+0, 2.00000E-1, 0.00000E+0, 0.00000E+0,1.00000,1,  100.0,    62.700,     0.000,   1,1.0000,    ,      ,    ,      ,    ,      ,3, 1.0000
  3931,'NB',   235.000,    51.279,   151.000,  -151.000,1.07145,     0,   567.000, 0.00000E+0, 2.00000E-1, 0.00000E+0, 0.00000E+0,1.00000,1,  100.0,   538.650,     0.000,   1,1.0000
  3931,'NH',  1212.000,   264.471,  1284.000, -1284.000,1.07145,     0,  2875.000, 0.00000E+0, 2.00000E-1, 0.00000E+0, 0.00000E+0,1.00000,1,  100.0,  2731.250,     0.000,   1,1.0000
  3932,'S ',  1355.000,    -1.408,  1150.000, -1150.000,0.99997,     0,  1426.000, 0.00000E+0, 2.00000E-1, 0.00000E+0, 0.00000E+0,1.00000,1,  100.0,  1354.700,     0.000,   1,1.0000,    ,      ,    ,      ,    ,      ,1, 1.0000
  3933,'CG',     2.904,    99.000,   363.000,  -363.000,1.02000,     0,   865.000, 0.00000E+0, 2.00000E-1, 0.00000E+0, 0.00000E+0,1.00000,1,  100.0,   821.750,     0.000,   1,1.0000
  3933,'NB',     1.155,    39.375,    77.000,   -77.000,1.02000,     0,   345.000, 0.00000E+0, 2.00000E-1, 0.00000E+0, 0.00000E+0,1.00000,1,  100.0,   327.750,     0.000,   1,1.0000
  3933,'ND',     0.000,     0.000,     0.500,     0.000,1.02000,     0,   100.000, 0.00000E+0, 2.00000E-1, 0.00000E+0, 0.00000E+0,1.00000,1,  100.0,     0.000,  -449.000,   1,1.0000
  3933,'NG',     6.463,   220.330,   500.000,  -500.000,1.02000,     0,  1927.000, 0.00000E+0, 2.00000E-1, 0.00000E+0, 0.00000E+0,1.00000,1,  100.0,  1830.650,     0.000,   1,1.0000
  3933,'NH',     9.306,   317.251,  1256.000, -1256.000,1.02000,     0,  2724.000, 0.00000E+0, 2.00000E-1, 0.00000E+0, 0.00000E+0,1.00000,1,  100.0,  2587.800,     0.000,   1,1.0000
  3933,'NW',     2.483,    84.648,   200.000,  -200.000,1.02000,     0,   740.000, 0.00000E+0, 2.00000E-1, 0.00000E+0, 0.00000E+0,1.00000,1,  100.0,   703.000,     0.000,   1,1.0000,    ,      ,    ,      ,    ,      ,1, 1.0000
  3933,'S ',     4.471,   152.421,   800.000,  -800.000,1.02000,     0,  1333.000, 0.00000E+0, 2.00000E-1, 0.00000E+0, 0.00000E+0,1.00000,1,  100.0,  1266.350,     0.000,   1,1.0000,    ,      ,    ,      ,    ,      ,1, 1.0000
  4009,'DP',     0.000,     0.000,     0.000,     0.000,1.00000,     0,     1.000, 0.00000E+0, 2.00000E-1, 0.00000E+0, 0.00000E+0,1.00000,0,  100.0,     0.100,     0.000,   1,1.0000,    ,      ,    ,      ,    ,      ,3, 1.0000
  4031,'G ',   992.000,   502.000,   502.000,  -502.000,1.08568,     0,  2710.000, 0.00000E+0, 2.00000E-1, 0.00000E+0, 0.00000E+0,1.00000,1,  100.0,  2574.500,     0.000,   1,1.0000
  4031,'H ',   348.000,   349.220,   489.000,  -489.000,1.08568,     0,   952.000, 0.00000E+0, 2.00000E-1, 0.00000E+0, 0.00000E+0,1.00000,1,  100.0,   904.400,     0.000,   1,1.0000
  4031,'S ',   156.000,   156.547,   250.000,  -250.000,1.08568,     0,   427.000, 0.00000E+0, 2.00000E-1, 0.00000E+0, 0.00000E+0,1.00000,1,  100.0,   405.650,     0.000,   1,1.0000,    ,      ,    ,      ,    ,      ,1, 1.0000
  4031,'W ',   232.000,   232.814,   240.000,  -240.000,1.08568,     0,   635.000, 0.00000E+0, 2.00000E-1, 0.00000E+0, 0.00000E+0,1.00000,1,  100.0,   603.250,     0.000,   1,1.0000,    ,      ,    ,      ,    ,      ,1, 1.0000
  4035,'C ',   193.000,   120.695,   255.000,  -255.000,1.12796,     0,   642.000, 0.00000E+0, 2.00000E-1, 0.00000E+0, 0.00000E+0,1.00000,1,  100.0,   609.900,     0.000,   1,1.0000
  4035,'G ',   498.000,   307.000,   307.000,  -307.000,1.12796,     0,  1656.000, 0.00000E+0, 2.00000E-1, 0.00000E+0, 0.00000E+0,1.00000,1,  100.0,  1573.200,     0.000,   1,1.0000
  4035,'H ',  1074.000,   671.637,  1836.000, -1836.000,1.12796,     0,  3572.000, 0.00000E+0, 2.00000E-1, 0.00000E+0, 0.00000E+0,1.00000,1,  100.0,  3393.400,     0.000,   1,1.0000
  4035,'S ',     0.000,     0.000,     0.000,     0.000,1.12796,     0,     1.000, 0.00000E+0, 2.00000E-1, 0.00000E+0, 0.00000E+0,1.00000,0,  100.0,     0.100,     0.000,   1,1.0000,    ,      ,    ,      ,    ,      ,1, 1.0000
  4035,'W ',   775.000,   484.654,   800.000,  -800.000,1.12796,     0,  2578.000, 0.00000E+0, 2.00000E-1, 0.00000E+0, 0.00000E+0,1.00000,1,  100.0,  2449.100,     0.000,   1,1.0000,    ,      ,    ,      ,    ,      ,1, 1.0000
  4039,'G ',    86.000,    54.740,   102.000,  -102.000,1.13704,     0,   150.000, 0.00000E+0, 2.00000E-1, 0.00000E+0, 0.00000E+0,1.00000,1,  100.0,   142.500,     0.000,   1,1.0000
  4039,'H ',  1617.000,  1029.232,  1459.000, -1459.000,1.13704,     0,  2839.000, 0.00000E+0, 2.00000E-1, 0.00000E+0, 0.00000E+0,1.00000,1,  100.0,  2697.050,     0.000,   1,1.0000
  4039,'S ',     0.000,     0.000,     0.000,     0.000,1.13704,     0,     1.000, 0.00000E+0, 2.00000E-1, 0.00000E+0, 0.00000E+0,1.00000,0,  100.0,     0.100,     0.000,   1,1.0000,    ,      ,    ,      ,    ,      ,1, 1.0000
  4039,'W ',   792.000,   500.000,   500.000,  -500.000,1.13704,     0,  1290.000, 0.00000E+0, 2.00000E-1, 0.00000E+0, 0.00000E+0,1.00000,1,  100.0,  1225.500,     0.000,   1,1.0000,    ,      ,    ,      ,    ,      ,1, 1.0000
  4131,'B ',   500.000,    65.709,   150.000,  -150.000,1.13267,     0,   711.000, 0.00000E+0, 2.00000E-1, 0.00000E+0, 0.00000E+0,1.00000,1,  100.0,   675.450,     0.000,   1,1.0000
  4131,'H ',  8243.000,  1083.272,  6482.000, -6482.000,1.13267,     0, 12613.000, 0.00000E+0, 2.00000E-1, 0.00000E+0, 0.00000E+0,1.00000,1,  100.0, 11982.350,     0.000,   1,1.0000
  4131,'W ',   617.000,    81.084,   120.000,  -120.000,1.13267,     0,   790.000, 0.00000E+0, 2.00000E-1, 0.00000E+0, 0.00000E+0,1.00000,1,  100.0,   750.500,     0.000,   1,1.0000,    ,      ,    ,      ,    ,      ,1, 1.0000
...